file 27760402 1611770266                                        
version 2
run Caso3-0-20210127-18:46:20-3921
attr configname Caso3
attr datetime 20210127-18:46:20
attr experiment Caso3
attr inifile omnetpp.ini
attr iterationvars ""
attr iterationvarsf ""
attr measurement ""
attr network Caso3
attr processid 3921
attr repetition 0
attr replication #0
attr resultdir results
attr runnumber 0
attr seedset 0
param Caso3.source[*].packetGenInterval exponential(0.5s)
param Caso3.source[*].packetLength exponential(3200)
param Caso3.queue[*].timeout 0.5s
param Caso3.node[0].pOutputLink1 3/4
param Caso3.node[1].pOutputLink1 2/3
param Caso3.node[2].pOutputLink1 0
param Caso3.node[3].pOutputLink1 0
param Caso3.node[4].pOutputLink1 1/2

vector 0 Caso3.node[3] "" ETV
vector 1 Caso3.node[2] "" ETV
0	730 1352971 18 364856 0.304479166667 7163.101710867361 32768 0.005416666667 33.33065387978 208247.35209352 2938317.9814953
0	1353701 1389506 364883 730189 7163.537450828003 14301.204673752124 32768 0.005104166667 38.550319865235 233013.75968742 3892201.9962777
0	2743207 1412615 730212 1095729 14301.616027918791 21433.470625886678 32768 0.005208333333 64.895405618792 321099.7038124 8281547.3501824
1	4155822 1363657 46 1179050 1.135553257356 23041.149400138822 32768 0.005 13.733512487229 39387.876635214 95441.83443297
0	5519479 1435682 1095732 1459709 21433.483125886678 28524.2908083422 32768 0.005208333333 35.769565953972 240964.95466959 3743005.3372533
0	6955161 1437085 1459712 1824873 28524.339975008867 35668.666847701143 32768 0.005 52.596970906987 333851.60616636 7930543.5231449
0	8392246 1433292 1824876 2187434 35668.724411901622 42855.159583796689 32768 0.005208333333 55.830912080994 240114.48458447 4887073.7529476
1	9825538 1409998 1179134 2356916 23042.443879723579 46161.428992139162 32768 0.005104166667 11.016796163695 38615.374097643 91580.945452383
0	11235536 1437074 2187444 2552065 42855.474271296689 50004.76811226085 32768 0.005 48.596376572108 275130.02866608 5172307.5151446
0	12672610 1437744 2552068 2917271 50004.784570594183 57122.546058113582 32768 0.005 50.504783401174 277717.71750774 4884895.7873019
0	14110354 1432365 2917274 3282697 57122.56876369143 64308.49428300121 32768 0.005 36.129305830822 188199.3861785 2352358.5343499
1	15542719 1410965 2356946 3532918 46162.181387972495 69236.732708453139 32768 0.005 10.242175705831 38773.077382038 91027.086560638
0	16953684 984147 3282702 3533056 64308.575949667877 69239.305699927531 22485 0.005 35.75440386518 152888.10852586 2295382.0792756
1	17937831 131 3532986 3533050 69237.775981908926 69239.15000220869 3 0.745208333333 2.657165869042 5.80972053821 13.411182296329
0	17937962 1434260 3533072 3898970 69239.803824927531 76374.707132575565 32768 0.005 42.828276530285 238253.46865768 4023786.8852716
0	19372222 1435725 3898992 4262609 76374.921835356222 83540.544864214713 32768 0.005208333333 46.824279793864 253641.60254401 4386163.3381702
0	20807947 1429341 4262618 4626829 83540.647676714713 90669.968211235128 32768 0.005 28.147574351178 141054.34910016 1280657.3450411
1	22237288 1409911 3533088 4722592 69239.917386106245 92566.565959228642 32768 0.005 11.077347091521 39792.927828022 98919.652253855
0	23647199 1441888 4626835 4990517 90670.013315401795 97772.096338306617 32768 0.005 42.968818517305 391187.94382129 9003639.2347568
0	25089087 1459267 4990518 5354886 97772.097069032247 104847.634595413181 32768 0.005 39.344932887437 260381.52311061 4647698.7329206
0	26548354 345077 5354898 5440505 104847.957065692673 106549.672891533491 7720 0.005208333333 28.096147945118 41878.261881301 474980.10607116
1	26893431 864429 4722632 5440292 92567.699396728641 106546.508977280491 19862 0.005 9.020151729806 23955.866979074 56813.956132599
0	27757860 1958 5440518 5441024 106549.878939540262 106558.09742221998 44 0.035808328597 11.904738754652 271.2722235956 2561.3251741506
1	27759818 583 5440531 5440985 106550.012545438452 106557.444382589542 13 0.457949241342 4.688919936061 21.910799574115 55.50885712882

