version 2
run Caso3-0-20210126-17:51:02-5276
attr configname Caso3
attr datetime 20210126-17:51:02
attr experiment Caso3
attr inifile omnetpp.ini
attr iterationvars ""
attr iterationvarsf ""
attr measurement ""
attr network Caso3
attr processid 5276
attr repetition 0
attr replication #0
attr resultdir results
attr runnumber 0
attr seedset 0
param Caso3.source[*].packetGenInterval exponential(0.05s)
param Caso3.source[*].packetLength exponential(1000)
param Caso3.queue[*].timeout 0.1s
param Caso3.node[0].pOutputLink1 3/4
param Caso3.node[1].pOutputLink1 2/3
param Caso3.node[2].pOutputLink1 0
param Caso3.node[3].pOutputLink1 0
param Caso3.node[4].pOutputLink1 1/2

vector 0 Caso3.node[3] "" ETV
vector 1 Caso3.node[2] "" ETV
0	33	0.103541666667	0.103541666667
0	40	0.140729166667	0.140729166667
0	64	0.263620078704	0.061875
0	91	0.356354166667	0.328801742333
0	122	0.433664553079	0.101458333334
0	132	0.459166666667	0.459166666667
0	148	0.485208333334	0.291910295004
0	188	0.621789553079	0.402034512179
0	201	0.663125000001	0.413030014585
0	216	0.694687500001	0.417814228574
0	248	0.802187500001	0.518050327209
0	269	0.941477053079	0.497801970659
0	280	1.004393719746	0.54183237527
0	287	1.015833333334	0.96967217676
0	303	1.046666666667	0.689078757646
0	401	1.396581219746	0.716611360643
0	460	1.608977053079	0.921940658298
0	502	1.760122886412	0.981022368057
0	528	1.832727053079	0.873588569453
0	555	1.945122886412	0.921388939346
0	686	2.429081219745	1.875451285411
0	699	2.451060386412	1.395570053564
0	708	2.486164553079	1.425246865306
0	739	2.593977053079	1.511207964617
1	58	0.252589223666	0.213229166667
1	77	0.322901723666	0.251069349254
1	87	0.350505890333	0.251071705586
1	157	0.503318390333	0.250501717912
1	164	0.544776723666	0.217547309957
1	189	0.626964223666	0.272482079168

