file 10269525 1611777756                                        
version 2
run Caso3-0-20210127-21:00:43-9186
attr configname Caso3
attr datetime 20210127-21:00:43
attr experiment Caso3
attr inifile omnetpp.ini
attr iterationvars ""
attr iterationvarsf ""
attr measurement ""
attr network Caso3
attr processid 9186
attr repetition 0
attr replication #0
attr resultdir results
attr runnumber 0
attr seedset 0
param Caso3.source[*].packetGenInterval exponential(0.5s)
param Caso3.source[*].packetLength exponential(3200)
param Caso3.queue[*].timeout 0.5s
param Caso3.node[0].pOutputLink1 3/4
param Caso3.node[1].pOutputLink1 2/3
param Caso3.node[2].pOutputLink1 0
param Caso3.node[3].pOutputLink1 0
param Caso3.node[4].pOutputLink1 1/2

vector 0 Caso3.node[3] "" ETV
vector 1 Caso3.node[3] "" ETV
0	730 126 18 39 0.304479166667 1.049017236658 4 0.304479166667 0.69875 2.082187500001 1.1899176757822
1	856 81 18 39 0.304479166667 1.049017236658 4 2 3 9 21
vector 2 Caso3.node[2] "" ETV
vector 3 Caso3.node[2] "" ETV
0	997 61 55 69 1.335 1.509994787686 2 0.122708333333 1.059475756665 1.182184089998 1.1375462140302
1	1058 35 55 69 1.335 1.509994787686 2 2 2 4 8
2	1093 35 46 46 1.135553257356 1.135553257356 1 0.255833333333 0.255833333333 0.255833333333 0.065450694444274
3	1128 22 46 46 1.135553257356 1.135553257356 1 2 2 2 4
2	1150 64 79 82 1.576015137609 1.592785970942 2 0.071521764705 0.284375 0.355896764705 0.085984503451517
3	1214 44 79 82 1.576015137609 1.592785970942 2 3 3 6 18
0	1258 1353034 95 364932 2.163913069991 7164.049846661336 32768 0.005416666667 33.33065387978 208387.30664671 2942411.8001748
1	1354292 931753 95 364932 2.163913069991 7164.049846661336 32768 2 4 85259 236951
0	2286045 1389518 364939 730275 7164.24465091835 14302.976649932114 32768 0.005104166667 38.550319865235 232932.6283001 3889018.6591674
1	3675563 966571 364939 730275 7164.24465091835 14302.976649932114 32768 2 4 85153 236183
0	4642134 1412619 730285 1095785 14303.165507085458 21434.124199110649 32768 0.005208333333 64.895405618792 321168.46650233 8284759.1691911
1	6054753 988044 730285 1095785 14303.165507085458 21434.124199110649 32768 2 4 85270 236756
2	7042797 1363690 162 1179247 3.413240113281 23044.472256723459 32768 0.005 13.733512487229 39390.795203822 95447.388336835
3	8406487 965458 162 1179247 3.413240113281 23044.472256723459 32768 2 4 88621 257915
0	9371945 482542 1095788 1216500 21434.170553277316 23763.163429471454 10978 0.0053125 35.769565953972 110028.90713816 2106808.265915
1	9854487 339077 1095788 1216500 21434.170553277316 23763.163429471454 10978 2 4 28582 79438
2	10193564 44255 1179273 1216507 23044.824860890126 23763.287042075652 1026 0.006979166667 6.847024723736 1165.8369357905 2631.6843107902
3	10237819 31705 1179273 1216507 23044.824860890126 23763.287042075652 1026 2 4 2738 7870

